
WRF-NMM has been removed from this repository since WRF V4.4.
