 --- NOTE: sst_update is 0, setting io_form_auxinput4 = 0 and auxinput4_interval = 0 for all domains
 --- NOTE: grid_fdda is 0 for domain      1, setting gfdda interval and ending time to 0 for that domain.
 --- NOTE: both grid_sfdda and pxlsm_soil_nudge are 0 for domain      1, setting sgfdda interval and ending time to 0 for that domain.
 --- NOTE: obs_nudge_opt is 0 for domain      1, setting obs nudging interval and ending time to 0 for that domain.
 --- NOTE: num_soil_layers has been set to      5
 WRF V3.3pre#2 MODEL
 DYNAMICS OPTION: Eulerian Mass Coordinate
    alloc_space_field: domain             1 ,                 628269056  bytes allocated
   med_initialdata_input: calling input_input
Timing for processing wrfinput file (stream 0) for domain        1:    0.32417 elapsed seconds.
 INPUT LandUse = "USGS"
 LANDUSE TYPE = "USGS" FOUND           33  CATEGORIES            2  SEASONS
  WATER CATEGORY =            16  SNOW CATEGORY =             0
Timing for Writing wrfout_d01_2007-09-01_00:00:00 for domain        1:    2.73122 elapsed seconds.
 WRF TILE   1 IS      1 IE    201 JS      1 JE    201
 WRF NUMBER OF TILES =   1
Timing for main: time 2007-09-01_00:01:00 on domain   1:    8.90753 elapsed seconds.
Timing for main: time 2007-09-01_00:02:00 on domain   1:    6.85968 elapsed seconds.
Timing for main: time 2007-09-01_00:03:00 on domain   1:    7.25693 elapsed seconds.
Timing for main: time 2007-09-01_00:04:00 on domain   1:    7.70316 elapsed seconds.
Timing for main: time 2007-09-01_00:05:00 on domain   1:    7.92200 elapsed seconds.
Timing for main: time 2007-09-01_00:06:00 on domain   1:    8.01548 elapsed seconds.
Timing for main: time 2007-09-01_00:07:00 on domain   1:    8.06219 elapsed seconds.
Timing for main: time 2007-09-01_00:08:00 on domain   1:    7.99306 elapsed seconds.
Timing for main: time 2007-09-01_00:09:00 on domain   1:    8.20527 elapsed seconds.
Timing for main: time 2007-09-01_00:10:00 on domain   1:    8.33031 elapsed seconds.
Timing for main: time 2007-09-01_00:11:00 on domain   1:    8.70214 elapsed seconds.
Timing for main: time 2007-09-01_00:12:00 on domain   1:    9.26283 elapsed seconds.
Timing for main: time 2007-09-01_00:13:00 on domain   1:    9.41367 elapsed seconds.
Timing for main: time 2007-09-01_00:14:00 on domain   1:    9.23889 elapsed seconds.
Timing for main: time 2007-09-01_00:15:00 on domain   1:    9.29439 elapsed seconds.
Timing for main: time 2007-09-01_00:16:00 on domain   1:    9.37620 elapsed seconds.
Timing for main: time 2007-09-01_00:17:00 on domain   1:    9.28921 elapsed seconds.
Timing for main: time 2007-09-01_00:18:00 on domain   1:    9.57707 elapsed seconds.
Timing for main: time 2007-09-01_00:19:00 on domain   1:    9.59902 elapsed seconds.
Timing for main: time 2007-09-01_00:20:00 on domain   1:    9.55063 elapsed seconds.
Timing for main: time 2007-09-01_00:21:00 on domain   1:    9.59330 elapsed seconds.
Timing for main: time 2007-09-01_00:22:00 on domain   1:    9.78019 elapsed seconds.
Timing for main: time 2007-09-01_00:23:00 on domain   1:   10.00233 elapsed seconds.
Timing for main: time 2007-09-01_00:24:00 on domain   1:    9.79076 elapsed seconds.
Timing for main: time 2007-09-01_00:25:00 on domain   1:    9.42848 elapsed seconds.
Timing for main: time 2007-09-01_00:26:00 on domain   1:    9.16182 elapsed seconds.
Timing for main: time 2007-09-01_00:27:00 on domain   1:    8.93181 elapsed seconds.
Timing for main: time 2007-09-01_00:28:00 on domain   1:    8.67217 elapsed seconds.
Timing for main: time 2007-09-01_00:29:00 on domain   1:    8.38867 elapsed seconds.
Timing for main: time 2007-09-01_00:30:00 on domain   1:    7.93034 elapsed seconds.
Timing for main: time 2007-09-01_00:31:00 on domain   1:    7.89645 elapsed seconds.
Timing for main: time 2007-09-01_00:32:00 on domain   1:    8.00263 elapsed seconds.
Timing for main: time 2007-09-01_00:33:00 on domain   1:    8.00863 elapsed seconds.
Timing for main: time 2007-09-01_00:34:00 on domain   1:    7.89446 elapsed seconds.
Timing for main: time 2007-09-01_00:35:00 on domain   1:    7.64932 elapsed seconds.
Timing for main: time 2007-09-01_00:36:00 on domain   1:    7.53459 elapsed seconds.
Timing for main: time 2007-09-01_00:37:00 on domain   1:    7.67423 elapsed seconds.
Timing for main: time 2007-09-01_00:38:00 on domain   1:    7.68751 elapsed seconds.
Timing for main: time 2007-09-01_00:39:00 on domain   1:    7.63362 elapsed seconds.
Timing for main: time 2007-09-01_00:40:00 on domain   1:    7.54597 elapsed seconds.
Timing for main: time 2007-09-01_00:41:00 on domain   1:    7.47796 elapsed seconds.
Timing for main: time 2007-09-01_00:42:00 on domain   1:    7.41545 elapsed seconds.
Timing for main: time 2007-09-01_00:43:00 on domain   1:    7.33916 elapsed seconds.
Timing for main: time 2007-09-01_00:44:00 on domain   1:    7.32302 elapsed seconds.
Timing for main: time 2007-09-01_00:45:00 on domain   1:    7.31673 elapsed seconds.
Timing for main: time 2007-09-01_00:46:00 on domain   1:    7.32098 elapsed seconds.
Timing for main: time 2007-09-01_00:47:00 on domain   1:    7.31806 elapsed seconds.
Timing for main: time 2007-09-01_00:48:00 on domain   1:    7.30773 elapsed seconds.
Timing for main: time 2007-09-01_00:49:00 on domain   1:    7.32012 elapsed seconds.
Timing for main: time 2007-09-01_00:50:00 on domain   1:    7.32205 elapsed seconds.
Timing for main: time 2007-09-01_00:51:00 on domain   1:    7.32177 elapsed seconds.
Timing for main: time 2007-09-01_00:52:00 on domain   1:    7.32891 elapsed seconds.
Timing for main: time 2007-09-01_00:53:00 on domain   1:    7.36092 elapsed seconds.
Timing for main: time 2007-09-01_00:54:00 on domain   1:    7.34731 elapsed seconds.
Timing for main: time 2007-09-01_00:55:00 on domain   1:    7.33772 elapsed seconds.
Timing for main: time 2007-09-01_00:56:00 on domain   1:    7.29951 elapsed seconds.
Timing for main: time 2007-09-01_00:57:00 on domain   1:    7.28989 elapsed seconds.
Timing for main: time 2007-09-01_00:58:00 on domain   1:    7.27509 elapsed seconds.
Timing for main: time 2007-09-01_00:59:00 on domain   1:    7.26751 elapsed seconds.
Timing for main: time 2007-09-01_01:00:00 on domain   1:    7.25795 elapsed seconds.
Timing for main: time 2007-09-01_01:01:00 on domain   1:    7.24560 elapsed seconds.
Timing for main: time 2007-09-01_01:02:00 on domain   1:    7.23406 elapsed seconds.
Timing for main: time 2007-09-01_01:03:00 on domain   1:    7.21972 elapsed seconds.
Timing for main: time 2007-09-01_01:04:00 on domain   1:    7.20508 elapsed seconds.
Timing for main: time 2007-09-01_01:05:00 on domain   1:    7.21191 elapsed seconds.
Timing for main: time 2007-09-01_01:06:00 on domain   1:    7.19508 elapsed seconds.
Timing for main: time 2007-09-01_01:07:00 on domain   1:    7.18641 elapsed seconds.
Timing for main: time 2007-09-01_01:08:00 on domain   1:    7.17859 elapsed seconds.
Timing for main: time 2007-09-01_01:09:00 on domain   1:    7.16500 elapsed seconds.
Timing for main: time 2007-09-01_01:10:00 on domain   1:    7.17309 elapsed seconds.
Timing for main: time 2007-09-01_01:11:00 on domain   1:    7.13363 elapsed seconds.
Timing for main: time 2007-09-01_01:12:00 on domain   1:    7.13298 elapsed seconds.
Timing for main: time 2007-09-01_01:13:00 on domain   1:    7.10809 elapsed seconds.
Timing for main: time 2007-09-01_01:14:00 on domain   1:    7.10493 elapsed seconds.
Timing for main: time 2007-09-01_01:15:00 on domain   1:    7.09424 elapsed seconds.
Timing for main: time 2007-09-01_01:16:00 on domain   1:    7.07232 elapsed seconds.
Timing for main: time 2007-09-01_01:17:00 on domain   1:    7.06687 elapsed seconds.
Timing for main: time 2007-09-01_01:18:00 on domain   1:    7.06054 elapsed seconds.
Timing for main: time 2007-09-01_01:19:00 on domain   1:    7.05693 elapsed seconds.
Timing for main: time 2007-09-01_01:20:00 on domain   1:    7.04077 elapsed seconds.
Timing for main: time 2007-09-01_01:21:00 on domain   1:    7.01730 elapsed seconds.
Timing for main: time 2007-09-01_01:22:00 on domain   1:    7.01836 elapsed seconds.
Timing for main: time 2007-09-01_01:23:00 on domain   1:    7.01583 elapsed seconds.
Timing for main: time 2007-09-01_01:24:00 on domain   1:    7.00588 elapsed seconds.
Timing for main: time 2007-09-01_01:25:00 on domain   1:    7.02804 elapsed seconds.
Timing for main: time 2007-09-01_01:26:00 on domain   1:    7.02471 elapsed seconds.
Timing for main: time 2007-09-01_01:27:00 on domain   1:    7.02067 elapsed seconds.
Timing for main: time 2007-09-01_01:28:00 on domain   1:    7.03372 elapsed seconds.
Timing for main: time 2007-09-01_01:29:00 on domain   1:    7.00240 elapsed seconds.
Timing for main: time 2007-09-01_01:30:00 on domain   1:    7.01149 elapsed seconds.
Timing for main: time 2007-09-01_01:31:00 on domain   1:    7.00223 elapsed seconds.
Timing for main: time 2007-09-01_01:32:00 on domain   1:    7.02648 elapsed seconds.
Timing for main: time 2007-09-01_01:33:00 on domain   1:    7.00137 elapsed seconds.
Timing for main: time 2007-09-01_01:34:00 on domain   1:    7.00136 elapsed seconds.
Timing for main: time 2007-09-01_01:35:00 on domain   1:    7.00328 elapsed seconds.
Timing for main: time 2007-09-01_01:36:00 on domain   1:    7.03469 elapsed seconds.
Timing for main: time 2007-09-01_01:37:00 on domain   1:    7.03670 elapsed seconds.
Timing for main: time 2007-09-01_01:38:00 on domain   1:    7.05074 elapsed seconds.
Timing for main: time 2007-09-01_01:39:00 on domain   1:    7.04157 elapsed seconds.
Timing for main: time 2007-09-01_01:40:00 on domain   1:    7.06100 elapsed seconds.
Timing for main: time 2007-09-01_01:41:00 on domain   1:    7.06474 elapsed seconds.
Timing for main: time 2007-09-01_01:42:00 on domain   1:    7.06007 elapsed seconds.
Timing for main: time 2007-09-01_01:43:00 on domain   1:    7.06125 elapsed seconds.
Timing for main: time 2007-09-01_01:44:00 on domain   1:    7.05508 elapsed seconds.
Timing for main: time 2007-09-01_01:45:00 on domain   1:    7.08435 elapsed seconds.
Timing for main: time 2007-09-01_01:46:00 on domain   1:    7.05356 elapsed seconds.
Timing for main: time 2007-09-01_01:47:00 on domain   1:    7.04221 elapsed seconds.
Timing for main: time 2007-09-01_01:48:00 on domain   1:    7.04302 elapsed seconds.
Timing for main: time 2007-09-01_01:49:00 on domain   1:    7.05661 elapsed seconds.
Timing for main: time 2007-09-01_01:50:00 on domain   1:    7.05281 elapsed seconds.
Timing for main: time 2007-09-01_01:51:00 on domain   1:    7.04443 elapsed seconds.
Timing for main: time 2007-09-01_01:52:00 on domain   1:    7.03539 elapsed seconds.
Timing for main: time 2007-09-01_01:53:00 on domain   1:    7.04136 elapsed seconds.
Timing for main: time 2007-09-01_01:54:00 on domain   1:    7.05242 elapsed seconds.
Timing for main: time 2007-09-01_01:55:00 on domain   1:    7.05654 elapsed seconds.
Timing for main: time 2007-09-01_01:56:00 on domain   1:    7.05613 elapsed seconds.
Timing for main: time 2007-09-01_01:57:00 on domain   1:    7.01995 elapsed seconds.
Timing for main: time 2007-09-01_01:58:00 on domain   1:    7.02528 elapsed seconds.
Timing for main: time 2007-09-01_01:59:00 on domain   1:    7.04240 elapsed seconds.
Timing for main: time 2007-09-01_02:00:00 on domain   1:    7.03352 elapsed seconds.
Timing for main: time 2007-09-01_02:01:00 on domain   1:    7.02178 elapsed seconds.
Timing for main: time 2007-09-01_02:02:00 on domain   1:    7.02418 elapsed seconds.
Timing for main: time 2007-09-01_02:03:00 on domain   1:    7.00773 elapsed seconds.
Timing for main: time 2007-09-01_02:04:00 on domain   1:    7.01910 elapsed seconds.
Timing for main: time 2007-09-01_02:05:00 on domain   1:    7.02342 elapsed seconds.
Timing for main: time 2007-09-01_02:06:00 on domain   1:    7.03099 elapsed seconds.
Timing for main: time 2007-09-01_02:07:00 on domain   1:    6.99807 elapsed seconds.
Timing for main: time 2007-09-01_02:08:00 on domain   1:    7.05313 elapsed seconds.
Timing for main: time 2007-09-01_02:09:00 on domain   1:    7.17603 elapsed seconds.
Timing for main: time 2007-09-01_02:10:00 on domain   1:    7.18245 elapsed seconds.
Timing for main: time 2007-09-01_02:11:00 on domain   1:    7.04639 elapsed seconds.
Timing